Circuit: * C:\Users\asus\Desktop\EE463\METU-EEE-463-Term-Project\Simulations\Pwm Generate\Pwm_generator.asc

Warning: Multiple definitions of model "1n4007" Type: Diode
WARNING: Less than two connections to node NC_01.  This node is used by V1.
Direct Newton iteration failed to find .op point.  (Use ".option noopiter" to skip.)
Starting Gmin stepping
Gmin = 10
Gmin = 1.07374
Gmin = 0.115292
Gmin = 0.0123794
Gmin = 0.00132923
vernier = 0.5
vernier = 0.25
vernier = 0.125
vernier = 0.0625
Gmin = 0.00100083
vernier = 0.03125
vernier = 0.015625
vernier = 0.0078125
vernier = 0.00390625
vernier = 0.00195313
Gmin = 0.00100083
vernier = 0.000976563
vernier = 0.000488281
Gmin = 0
Gmin stepping failed

Starting source stepping with srcstepmethod=0
Source Step = 3.0303%
Source Step = 33.3333%
Source Step = 63.6364%
Source Step = 93.9394%
Source Step = 93.9542%
Source Step = 93.9838%
Source Step = 94.0134%
Source Step = 94.043%
Source Step = 94.0726%
Source Step = 94.1022%
vernier = 0.00146484
Source Step = 94.1332%
Source Step = 94.1776%
Source Step = 94.222%
Source Step = 94.2664%
Source Step = 94.3108%
Source Step = 94.3552%
vernier = 0.00219727
Source Step = 94.4218%
Source Step = 94.4883%
Source Step = 94.5549%
Source Step = 94.6215%
Source Step = 94.6881%
vernier = 0.0032959
Source Step = 94.7846%
Source Step = 94.8845%
Source Step = 94.9844%
Source Step = 95.0843%
Source Step = 95.1841%
vernier = 0.00494385
Source Step = 95.324%
Source Step = 95.4738%
Source Step = 95.6236%
Source Step = 95.7734%
Source Step = 95.9232%
vernier = 0.00741577
Source Step = 96.1255%
Source Step = 96.3502%
Source Step = 96.5749%
Source Step = 96.7996%
Source Step = 97.0244%
vernier = 0.0111237
Source Step = 97.3165%
Source Step = 97.6536%
Source Step = 97.9906%
Source Step = 98.3277%
Source Step = 98.6648%
vernier = 0.0166855
Source Step = 99.0862%
Source Step = 99.5918%
Source stepping succeeded in finding the operating point.


Date: Tue Dec 21 15:23:10 2021
Total elapsed time: 46.920 seconds.

tnom = 27
temp = 27
method = modified trap
totiter = 1452846
traniter = 1447265
tranpoints = 373881
accept = 253914
rejected = 119967
matrix size = 239
fillins = 648
solver = Normal
Thread vector: 46.2/8.0[4] 8.9/5.3[4] 7.4/3.2[4] 1.1/2.8[1]  2592/500
Matrix Compiler1: 55.47 KB object code size  25.0/12.1/[3.7]
Matrix Compiler2: 31.21 KB object code size  4.1/5.3/[1.5]

